!----------------------------------------------------------------------------------
! Users should add all user specific namelist changes below in the form of 
! namelist_var = new_namelist_value 
!
! EXCEPTIONS: 
! Set use_cndv           by the compset you use and the CLM_BLDNML_OPTS -dynamic_vegetation setting
! Set use_vichydro       by the compset you use and the CLM_BLDNML_OPTS -vichydro           setting
! Set use_cn             by the compset you use and CLM_BLDNML_OPTS -bgc  setting
! Set use_crop           by the compset you use and CLM_BLDNML_OPTS -crop setting
! Set spinup_state       by the CLM_BLDNML_OPTS -bgc_spinup      setting
! Set co2_ppmv           with CCSM_CO2_PPMV                      option
! Set fatmlndfrc         with LND_DOMAIN_PATH/LND_DOMAIN_FILE    options
! Set finidat            with RUN_REFCASE/RUN_REFDATE/RUN_REFTOD options for hybrid or branch cases
!                        (includes $inst_string for multi-ensemble cases)
!                        or with CLM_FORCE_COLDSTART to do a cold start
!                        or set it with an explicit filename here.
! Set maxpatch_glcmec    with GLC_NEC                            option
! Set glc_do_dynglacier  with GLC_TWO_WAY_COUPLING               env variable
!----------------------------------------------------------------------------------

fsurdat = '/groups/chopinsong/CTSM_projects/PTCLM/mydatafile/Rainman_srgpft/1x1pt_RainManSR/surfdata_1x1pt_RainManSR_hist_78pfts_CMIP6_simyr2000_c211127.nc'
hist_nhtfrq = 0
hist_mfilt  = 1200
use_fertilizer = .false.
use_init_interp = .true.
use_crop = .false.
use_hydrstress = .true.
use_cn         = .true.
use_luna       = .false.
do_harvest = .false.
do_transient_crops = .false.
do_transient_pfts = .false.
constrain_stress_deciduous_onset=.false.
soil_layerstruct_predefined = '10SL_3.5m'
