&clm_inparm
 hist_mfilt = 1
 hist_nhtfrq = -8760
 fsurdat = '/home/ysa/ccsm_inputdata/lnd/clm2/surfdata/surfdata_1x1pt_MAN-05_I1850CN_ad_spinup_simyr1850_c130404.nc'
 fpftcon = '/home/ysa/ccsm_inputdata/lnd/clm2/pftdata/pft-physiology.c110425.MAN-05_I1850CN_ad_spinup.nc'
 fsoilordercon = '/home/ysa/ccsm_inputdata/lnd/clm2/pftdata/CNP_parameters_c121029MAN-05_I1850CN_ad_spinup.nc'
 stream_fldfilename_ndep = '/home/ysa/ccsm_inputdata/lnd/clm2/ndepdata/fndep_clm_hist_simyr1849-2006_1.9x2.5_c100428.nc'
/
