&clm_inparm
 hist_mfilt = 365
 hist_nhtfrq = -24
 finidat = '/home/ysa/clm4_ornl_cnp/run/MAN-05_I1850CN/run/MAN-05_I1850CN.clm2.r.1020-01-01-00000.nc'
 fsurdat = '/home/ysa/ccsm_inputdata/lnd/clm2/surfdata/surfdata_1x1pt_MAN-05_I20TRCN_simyr1850_c130404.nc'
 fpftdyn = '/home/ysa/ccsm_inputdata/lnd/clm2/surfdata/surfdata.pftdyn_1x1pt_MAN-05_I20TRCN.nc'
 fpftcon = '/home/ysa/ccsm_inputdata/lnd/clm2/pftdata/pft-physiology.c110425.MAN-05_I20TRCN.nc'
 fsoilordercon = '/home/ysa/ccsm_inputdata/lnd/clm2/pftdata/CNP_parameters_c121029MAN-05_I20TRCN.nc'
 stream_fldfilename_ndep = '/home/ysa/ccsm_inputdata/lnd/clm2/ndepdata/fndep_clm_hist_simyr1849-2006_1.9x2.5_c100428.nc'
/
