! user_nl_clm namelist options written by PTCLMmkdata:
! /var/spool/slurm/d/job9920347/slurm_script --ctsm_root /home/u8/sdwilson/CTSM_SONG -s KNOZ -d /xdisk/chopinsong/chopinsong/CTSM_inputdata --map_gdate 240605 --crop --mydatadir=/xdisk/chopinsong/sdwilson/CTSM_sabrina/PTCLM/mydatafile/KNOZ 
 fsurdat = '/xdisk/chopinsong/sdwilson/CTSM_sabrina/PTCLM/mydatafile/KNOZ/1x1pt_KNOZ/surfdata_1x1pt_KNOZ_hist_78pfts_CMIP6_simyr2000_c240605.nc'
 hist_nhtfrq = 0
 hist_mfilt  = 1200
