! user_nl_clm namelist options written by PTCLMmkdata:
! /var/spool/slurm/d/job10362260/slurm_script --ctsm_root /home/u8/sdwilson/CTSM_SONG -s ONAQ -d /xdisk/chopinsong/chopinsong/CTSM_inputdata --map_gdate 240904 --crop --mydatadir=/xdisk/chopinsong/sdwilson/CTSM_sabrina/PTCLM/mydatafile/ONAQ 
 fsurdat = '/xdisk/chopinsong/sdwilson/CTSM_sabrina/PTCLM/mydatafile/ONAQ/1x1pt_ONAQ/surfdata_1x1pt_ONAQ_hist_78pfts_CMIP6_simyr2000_c240904.nc'
 hist_nhtfrq = 0
 hist_mfilt  = 1200
hist_nhtfrq = 0
hist_mfilt  = 1200
use_fertilizer = .false.
use_init_interp = .true.
use_vertsoilc = .false.
use_crop = .false.
use_hydrstress = .true.
use_century_decomp = .false.
use_cn         = .true.
use_dynroot    = .false.
use_luna       = .false.
do_harvest = .false.
do_transient_crops = .false.
do_transient_pfts = .false.
hist_fincl1 = 'GPP:A','TWS:A','TOTECOSYSC:A','TOTVEGC:A','TLAI:A','TOTSOMC:A'
hist_dov2xy = .true.
hist_type1d_pertape = ' '
constrain_stress_deciduous_onset=.false.
soil_layerstruct_predefined = '10SL_3.5m'
fsurdat = '/xdisk/chopinsong/sdwilson/CTSM_sabrina/PTCLM/mydatafile/ONAQ/1x1pt_ONAQ/surfdata_1x1pt_ONAQ_hist_78pfts_CMIP6_simyr2000_c240904.nc'
finidat='/xdisk/chopinsong/sdwilson/CTSM_sabrina/Omics_soilbgc/1x1pt_ONAQ/control3_results/control3_final.clm2.r.2318-01-01-00000.nc'
