
&clm_inparm
 co2_type		= 'diagnostic'
 create_crop_landunit		= .false.
 do_rtm		= .false.
 dtime		= 1800
 fatmgrid		= '/home/ysa/ccsm_inputdata/lnd/clm2/griddata/griddata_1x1pt_MAN-05.nc'
 fatmlndfrc		= '/home/ysa/ccsm_inputdata/share/domains/domain.clm/domain.lnd.1x1pt_MAN-05_navy.nc'
 finidat		= '/home/ysa/clm4_ornl_cnp/run/MAN-05_I1850CN/run/MAN-05_I1850CN.clm2.r.1020-01-01-00000.nc'
 fpftcon		= '/home/ysa/ccsm_inputdata/lnd/clm2/pftdata/pft-physiology.c110425.MAN-05_I20TRCN.nc'
 fpftdyn		= '/home/ysa/ccsm_inputdata/lnd/clm2/surfdata/surfdata.pftdyn_1x1pt_MAN-05_I20TRCN.nc'
 fsnowaging		= '/home/ysa/ccsm_inputdata/lnd/clm2/snicardata/snicar_drdt_bst_fit_60_c070416.nc'
 fsnowoptics		= '/home/ysa/ccsm_inputdata/lnd/clm2/snicardata/snicar_optics_5bnd_c090915.nc'
 fsoilordercon		= '/home/ysa/ccsm_inputdata/lnd/clm2/pftdata/CNP_parameters_c121029MAN-05_I20TRCN.nc'
 fsurdat		= '/home/ysa/ccsm_inputdata/lnd/clm2/surfdata/surfdata_1x1pt_MAN-05_I20TRCN_simyr1850_c130404.nc'
 hist_mfilt		= 365
 hist_nhtfrq		= -24
 maxpatch_glcmec		= 0
 urban_hac		= 'ON_WASTEHEAT'
 urban_traffic		= .false.
/
&ndepdyn_nml
 model_year_align_ndep		= 1850
 ndepmapalgo		= 'bilinear'
 stream_fldfilename_ndep		= '/home/ysa/ccsm_inputdata/lnd/clm2/ndepdata/fndep_clm_hist_simyr1849-2006_1.9x2.5_c100428.nc'
 stream_year_first_ndep		= 1850
 stream_year_last_ndep		= 2005
/
#!--------------------------------------------------------------------------------------------------------------------------
#! lnd_in:: Comment:
#! This namelist was created using the following command-line:
#!     /home/ysa/clm4_ornl_cnp/models/lnd/clm/bld/build-namelist -clm_usr_name 1x1pt_MAN-05 -config /home/ysa/clm4_ornl_cnp/scripts/MAN-05_I20TRCN/Buildconf/clmconf/config_cache.xml -res 1x1pt_MAN-05 -ignore_ic_year -use_case 20thC_transient -infile cesm_namelist,/home/ysa/clm4_ornl_cnp/scripts/MAN-05_I20TRCN/user_nl_clm -clm_start_type default -glc_nec 0 -rtm off -rtm_res R05 -rtm_tstep 10800 -co2_ppmv 367.0 -datm_presaero trans_1850-2000 -mask navy -namelist &clm_inparm  / -csmdata /home/ysa/ccsm_inputdata -inputdata /home/ysa/clm4_ornl_cnp/scripts/MAN-05_I20TRCN/Buildconf/clm.input_data_list
#! For help on options use: /home/ysa/clm4_ornl_cnp/models/lnd/clm/bld/build-namelist -help
#!--------------------------------------------------------------------------------------------------------------------------
