! user_nl_clm namelist options written by PTCLMmkdata:
! /var/spool/slurm/d/job10757215/slurm_script --ctsm_root /home/u8/sdwilson/CTSM_SONG -s WOOD -d /xdisk/chopinsong/chopinsong/CTSM_inputdata --map_gdate 241110 --crop --mydatadir=/xdisk/chopinsong/sdwilson/CTSM_sabrina/PTCLM/mydatafile/WOOD 
 fsurdat = '/xdisk/chopinsong/sdwilson/CTSM_sabrina/PTCLM/mydatafile/WOOD/1x1pt_WOOD/surfdata_1x1pt_WOOD_hist_78pfts_CMIP6_simyr2000_c241110.nc'
 hist_nhtfrq = 0
 hist_mfilt  = 1200
