hist_nhtfrq = 0
hist_mfilt  = 1200
use_fertilizer = .false.
use_init_interp = .true.
use_crop = .false.
use_hydrstress = .true.
use_cn         = .true.
use_dynroot    = .false.
use_luna       = .false.
do_harvest = .false.
do_transient_crops = .false.
do_transient_pfts = .false.
constrain_stress_deciduous_onset=.false.
soil_layerstruct_predefined = '10SL_3.5m'
fsurdat = '/groups/chopinsong/CTSM_projects/PTCLM/mydatafile/Rainman_srgpft/1x1pt_RainManSR/surfdata_1x1pt_RainManSR_hist_78pfts_CMIP6_simyr2000_c211127.nc'
finidat='/home/u22/chopinsong/CTSM_SONG/case_run/Bioclimate/1x1pt_RainManSR/1x1_SRG_test1_final/'
