! user_nl_clm namelist options written by PTCLMmkdata:
! /var/spool/slurm/d/job10362651/slurm_script --ctsm_root /home/u8/sdwilson/CTSM_SONG -s SRER -d /xdisk/chopinsong/chopinsong/CTSM_inputdata --map_gdate 240904 --crop --mydatadir=/xdisk/chopinsong/sdwilson/CTSM_sabrina/PTCLM/mydatafile/SRER 
 fsurdat = '/xdisk/chopinsong/sdwilson/CTSM_sabrina/PTCLM/mydatafile/SRER/1x1pt_SRER/surfdata_1x1pt_SRER_hist_78pfts_CMIP6_simyr2000_c240904.nc'
 hist_nhtfrq = 0
 hist_mfilt  = 1200
fsurdat = '/xdisk/chopinsong/sdwilson/CTSM_sabrina/PTCLM/mydatafile/SRER/1x1pt_SRER/surfdata_1x1pt_SRER_hist_78pfts_CMIP6_simyr2000_c240904.nc'
hist_nhtfrq = 0
hist_mfilt  = 1200
use_fertilizer = .false.
use_init_interp = .true.
use_crop = .false.
use_vertsoilc = .false.
use_hydrstress = .true.
use_century_decomp = .false.
use_cn         = .true.
use_luna       = .false.
use_lch4       = .false.
do_harvest = .false.
do_transient_crops = .false.
do_transient_pfts = .false.
hist_fincl1 = 'GPP:A','TWS:A','TOTECOSYSC:A','TOTVEGC:A','TLAI:A','TOTSOMC:A'
hist_dov2xy = .true.
hist_type1d_pertape = ' '
constrain_stress_deciduous_onset=.false.
soil_layerstruct_predefined = '10SL_3.5m'
Watsat_profile_file ='/home/u8/sdwilson/CTSM_SONG/case_run/Omics_soilbgc/1x1pt_SRER/hydro_files/watsat_profile_S1.txt'
Sucsat_profile_file ='/home/u8/sdwilson/CTSM_SONG/case_run/Omics_soilbgc/1x1pt_SRER/hydro_files/sucsat_profile_S1.txt'
B_profile_file ='/home/u8/sdwilson/CTSM_SONG/case_run/Omics_soilbgc/1x1pt_SRER/hydro_files/bsw_profile_S1.txt'
