
&clm_inparm
 co2_ppmv		= 284.7
 co2_type		= 'constant'
 create_crop_landunit		= .false.
 do_rtm		= .false.
 dtime		= 1800
 fatmgrid		= '/home/xyk/DownloadedCCSMData/ccsm_inputdata/lnd/clm2/griddata/griddata_1x1pt_CR-Lse.nc'
 fatmlndfrc		= '/home/xyk/DownloadedCCSMData/ccsm_inputdata/share/domains/domain.clm/domain.lnd.1x1pt_CR-Lse_navy.nc'
 finidat		= ' '
 fpftcon		= '/home/xyk/DownloadedCCSMData/ccsm_inputdata/lnd/clm2/pftdata/pft-physiology.c110425.testtest_CR-Lse_I1850CN_ad_spinup.nc'
 fsnowaging		= '/home/xyk/DownloadedCCSMData/ccsm_inputdata/lnd/clm2/snicardata/snicar_drdt_bst_fit_60_c070416.nc'
 fsnowoptics		= '/home/xyk/DownloadedCCSMData/ccsm_inputdata/lnd/clm2/snicardata/snicar_optics_5bnd_c090915.nc'
 fsoilordercon		= '/home/xyk/DownloadedCCSMData/ccsm_inputdata/lnd/clm2/pftdata/CNP_parameters_c121029testtest_CR-Lse_I1850CN_ad_spinup.nc'
 fsurdat		= '/home/xyk/DownloadedCCSMData/ccsm_inputdata/lnd/clm2/surfdata/surfdata_1x1pt_testtest_CR-Lse_I1850CN_ad_spinup_simyr1850_c130404.nc'
 maxpatch_glcmec		= 0
 urban_hac		= 'ON_WASTEHEAT'
 urban_traffic		= .false.
/
&ndepdyn_nml
 ndepmapalgo		= 'bilinear'
 stream_fldfilename_ndep		= '/home/xyk/DownloadedCCSMData/ccsm_inputdata/lnd/clm2/ndepdata/fndep_clm_hist_simyr1849-2006_1.9x2.5_c100428.nc'
 stream_year_first_ndep		= 1850
 stream_year_last_ndep		= 1850
/
#!--------------------------------------------------------------------------------------------------------------------------
#! lnd_in:: Comment:
#! This namelist was created using the following command-line:
#!     /home/xyk/TropicalWarming/clm4_ornl_cnp/models/lnd/clm/bld/build-namelist -clm_usr_name 1x1pt_CR-Lse -config /home/xyk/TropicalWarming/clm4_ornl_cnp/scripts/testtest_CR-Lse_I1850CN_ad_spinup/Buildconf/clmconf/config_cache.xml -res 1x1pt_CR-Lse -ignore_ic_year -use_case 1850_control -infile cesm_namelist,/home/xyk/TropicalWarming/clm4_ornl_cnp/scripts/testtest_CR-Lse_I1850CN_ad_spinup/user_nl_clm -clm_start_type default -glc_nec 0 -rtm off -rtm_res R05 -rtm_tstep 10800 -co2_ppmv 284.7 -datm_presaero clim_1850 -mask navy -namelist &clm_inparm  / -csmdata /home/xyk/DownloadedCCSMData/ccsm_inputdata -inputdata /home/xyk/TropicalWarming/clm4_ornl_cnp/scripts/testtest_CR-Lse_I1850CN_ad_spinup/Buildconf/clm.input_data_list
#! For help on options use: /home/xyk/TropicalWarming/clm4_ornl_cnp/models/lnd/clm/bld/build-namelist -help
#!--------------------------------------------------------------------------------------------------------------------------
