! user_nl_clm namelist options written by PTCLMmkdata:
! /var/spool/slurm/d/job9830039/slurm_script --ctsm_root /home/u8/sdwilson/CTSM_SONG -s site25 -d /xdisk/chopinsong/chopinsong/CTSM_inputdata --map_gdate 240517 --crop --mydatadir=/xdisk/chopinsong/sdwilson/CTSM_sabrina/PTCLM/mydatafile/site25 
 fsurdat = '/xdisk/chopinsong/sdwilson/CTSM_sabrina/PTCLM/mydatafile/site25/1x1pt_site25/surfdata_1x1pt_site25_hist_78pfts_CMIP6_simyr2000_c240517.nc'
 hist_nhtfrq = 0
 hist_mfilt  = 1200
hist_nhtfrq = 0,0
hist_mfilt  = 1200,1200
use_fertilizer = .false.
use_vertsoilc = .false.
use_century_decomp = .false.
use_init_interp = .true.
use_crop = .true.
use_hydrstress = .true.
use_cn         = .true.
use_dynroot    = .false.
use_luna       = .false.
do_harvest = .false.
do_transient_crops = .false.
do_transient_pfts = .false.
constrain_stress_deciduous_onset=.false.
soil_layerstruct_predefined = '10SL_3.5m'
hist_empty_htapes = .true.
hist_fincl1 = 'GPP:A','TWS:A','TOTLITC:A','TSOI:A'
hist_fincl2 = 'TOTSOMC:A'
hist_dov2xy =.true.,.false.
hist_type1d_pertape =' ','COLS'

fsurdat = '/xdisk/chopinsong/sdwilson/CTSM_sabrina/PTCLM/mydatafile/site25/1x1pt_site25/surfdata_1x1pt_site25_hist_78pfts_CMIP6_simyr2000_c240517.nc'
finidat='/home/u8/sdwilson/CTSM_SONG/case_run/EFC/1x1pt_site25/1x1_control_final/'
hist_nhtfrq = 0,0
hist_mfilt  = 1200,1200
use_fertilizer = .false.
use_vertsoilc = .false.
use_century_decomp = .false.
use_init_interp = .true.
use_crop = .true.
use_hydrstress = .true.
use_cn         = .true.
use_dynroot    = .false.
use_luna       = .false.
do_harvest = .false.
do_transient_crops = .false.
do_transient_pfts = .false.
constrain_stress_deciduous_onset=.false.
soil_layerstruct_predefined = '10SL_3.5m'
hist_empty_htapes = .true.
hist_fincl1 = 'GPP:A','TWS:A','TOTLITC:A','TSOI:A'
hist_fincl2 = 'TOTSOMC:A'
hist_dov2xy =.true.,.false.
hist_type1d_pertape =' ','COLS'

fsurdat = '/xdisk/chopinsong/sdwilson/CTSM_sabrina/PTCLM/mydatafile/site25/1x1pt_site25/surfdata_1x1pt_site25_hist_78pfts_CMIP6_simyr2000_c240517.nc'
finidat='/home/u8/sdwilson/CTSM_SONG/case_run/EFC/1x1pt_site25/1x1_control_final/1x1_control_spinup.clm2.r.2260-01-01-00000.nc'
hist_nhtfrq = 0,0
hist_mfilt  = 1200,1200
use_fertilizer = .false.
use_vertsoilc = .false.
use_century_decomp = .false.
use_init_interp = .true.
use_crop = .true.
use_hydrstress = .true.
use_cn         = .true.
use_dynroot    = .false.
use_luna       = .false.
do_harvest = .false.
do_transient_crops = .false.
do_transient_pfts = .false.
constrain_stress_deciduous_onset=.false.
soil_layerstruct_predefined = '10SL_3.5m'
hist_empty_htapes = .true.
hist_fincl1 = 'GPP:A','TWS:A','TOTLITC:A','TSOI:A'
hist_fincl2 = 'TOTSOMC:A'
hist_dov2xy =.true.,.false.
hist_type1d_pertape =' ','COLS'

fsurdat = '/xdisk/chopinsong/sdwilson/CTSM_sabrina/PTCLM/mydatafile/site25/1x1pt_site25/surfdata_1x1pt_site25_hist_78pfts_CMIP6_simyr2000_c240517.nc'
finidat='/home/u8/sdwilson/CTSM_SONG/case_run/EFC/1x1pt_site25/1x1_control_final/1x1_control_spinup.clm2.r.2260-01-01-00000.nc'
hist_nhtfrq = 0,0
hist_mfilt  = 1200,1200
use_fertilizer = .false.
use_vertsoilc = .false.
use_century_decomp = .false.
use_init_interp = .true.
use_crop = .true.
use_hydrstress = .true.
use_cn         = .true.
use_dynroot    = .false.
use_luna       = .false.
do_harvest = .false.
do_transient_crops = .false.
do_transient_pfts = .false.
constrain_stress_deciduous_onset=.false.
soil_layerstruct_predefined = '10SL_3.5m'
hist_empty_htapes = .true.
hist_fincl1 = 'GPP:A','TWS:A','TOTLITC:A','TSOI:A'
hist_fincl2 = 'TOTSOMC:A'
hist_dov2xy =.true.,.false.
hist_type1d_pertape =' ','COLS'

fsurdat = '/xdisk/chopinsong/sdwilson/CTSM_sabrina/PTCLM/mydatafile/site25/1x1pt_site25/surfdata_1x1pt_site25_hist_78pfts_CMIP6_simyr2000_c240517.nc'
finidat='/home/u8/sdwilson/CTSM_SONG/case_run/EFC/1x1pt_site25/1x1_control_final/1x1_control_spinup.clm2.r.2260-01-01-00000.nc'
hist_nhtfrq = 0,0
hist_mfilt  = 1200,1200
use_fertilizer = .false.
use_vertsoilc = .false.
use_century_decomp = .false.
use_init_interp = .true.
use_crop = .true.
use_hydrstress = .true.
use_cn         = .true.
use_dynroot    = .false.
use_luna       = .false.
do_harvest = .false.
do_transient_crops = .false.
do_transient_pfts = .false.
constrain_stress_deciduous_onset=.false.
soil_layerstruct_predefined = '10SL_3.5m'
hist_empty_htapes = .true.
hist_fincl1 = 'GPP:A','TWS:A','TOTLITC:A','TSOI:A'
hist_fincl2 = 'TOTSOMC:A'
hist_dov2xy =.true.,.false.
hist_type1d_pertape =' ','COLS'

fsurdat = '/xdisk/chopinsong/sdwilson/CTSM_sabrina/PTCLM/mydatafile/site25/1x1pt_site25/surfdata_1x1pt_site25_hist_78pfts_CMIP6_simyr2000_c240517.nc'
finidat='/home/u8/sdwilson/CTSM_SONG/case_run/EFC/1x1pt_site25/1x1_control_final/1x1_control_spinup.clm2.r.2260-01-01-00000.nc'
