&clm_inparm
 albice = 0.50,0.30
 co2_ppmv = 367.0
 co2_type = 'constant'
 collapse_urban = .false.
 compname = 'clm2'
 create_crop_landunit = .true.
 crop_fsat_equals_zero = .false.
 fatmlndfrc = '/xdisk/chopinsong/sdwilson/CTSM_sabrina/PTCLM/mydatafile/LENO/1x1pt_LENO/domain.lnd.1x1pt_LENO_navy.240920.nc'
 finidat = '/xdisk/chopinsong/chopinsong/CTSM_inputdata/lnd/clm2/initdata_map/clmi.I2000Clm50BgcCrop.2011-01-01.1.9x2.5_gx1v7_gl4_simyr2000_c190312.nc'
 for_testing_run_ncdiopio_tests = .false.
 fsnowaging = '/xdisk/chopinsong/chopinsong/CTSM_inputdata/lnd/clm2/snicardata/snicar_drdt_bst_fit_60_c070416.nc'
 fsnowoptics = '/xdisk/chopinsong/chopinsong/CTSM_inputdata/lnd/clm2/snicardata/snicar_optics_5bnd_c090915.nc'
 fsurdat = '/xdisk/chopinsong/sdwilson/CTSM_sabrina/PTCLM/mydatafile/LENO/1x1pt_LENO/surfdata_1x1pt_LENO_hist_78pfts_CMIP6_simyr2000_c240920.nc'
 glc_do_dynglacier = .false.
 glc_snow_persistence_max_days = 0
 h2osno_max = 10000.0
 hist_dov2xy = .true.
 hist_empty_htapes = .true.
 hist_fincl1 = 'GPP:A','TWS:A','TOTECOSYSC:A','TOTVEGC:A','TLAI:A','TOTSOMC:A'
 hist_master_list_file = .false.
 hist_mfilt = 1200
 hist_nhtfrq = 0
 hist_type1d_pertape = ' '
 irrigate = .true.
 maxpatch_glcmec = 10
 n_dom_landunits = 0
 n_dom_pfts = 0
 nlevsno = 12
 nsegspc = 35
 paramfile = '/xdisk/chopinsong/chopinsong/CTSM_inputdata/lnd/clm2/paramdata/clm50_params.c200905.nc'
 run_zero_weight_urban = .false.
 snow_cover_fraction_method = 'SwensonLawrence2012'
 soil_layerstruct_predefined = '10SL_3.5m'
 spinup_state = 2
 toosmall_crop = 0.d00
 toosmall_glacier = 0.d00
 toosmall_lake = 0.d00
 toosmall_soil = 0.d00
 toosmall_urban = 0.d00
 toosmall_wetland = 0.d00
 use_bedrock = .true.
 use_century_decomp = .false.
 use_cn = .true.
 use_crop = .false.
 use_dynroot = .false.
 use_fates = .false.
 use_fertilizer = .false.
 use_flexiblecn = .true.
 use_fun = .true.
 use_grainproduct = .false.
 use_hydrstress = .true.
 use_init_interp = .true.
 use_lai_streams = .false.
 use_lch4 = .false.
 use_luna = .false.
 use_nguardrail = .true.
 use_nitrif_denitrif = .true.
 use_soil_moisture_streams = .false.
 use_subgrid_fluxes = .true.
 use_vertsoilc = .false.
/
&ndepdyn_nml
 ndep_taxmode = 'cycle'
 ndep_varlist = 'NDEP_month'
 ndepmapalgo = 'bilinear'
 stream_fldfilename_ndep = '/xdisk/chopinsong/chopinsong/CTSM_inputdata/lnd/clm2/ndepdata/fndep_clm_hist_b.e21.BWHIST.f09_g17.CMIP6-historical-WACCM.ensmean_1849-2015_monthly_0.9x1.25_c180926.nc'
 stream_year_first_ndep = 2000
 stream_year_last_ndep = 2000
/
&popd_streams
 popdensmapalgo = 'bilinear'
 stream_fldfilename_popdens = '/xdisk/chopinsong/chopinsong/CTSM_inputdata/lnd/clm2/firedata/clmforc.Li_2017_HYDEv3.2_CMIP6_hdm_0.5x0.5_AVHRR_simyr1850-2016_c180202.nc'
 stream_year_first_popdens = 2000
 stream_year_last_popdens = 2000
/
&urbantv_streams
 stream_fldfilename_urbantv = '/xdisk/chopinsong/chopinsong/CTSM_inputdata/lnd/clm2/urbandata/CLM50_tbuildmax_Oleson_2016_0.9x1.25_simyr1849-2106_c160923.nc'
 stream_year_first_urbantv = 2000
 stream_year_last_urbantv = 2000
 urbantvmapalgo = 'nn'
/
&light_streams
 lightngmapalgo = 'bilinear'
 stream_fldfilename_lightng = '/xdisk/chopinsong/chopinsong/CTSM_inputdata/atm/datm7/NASA_LIS/clmforc.Li_2012_climo1995-2011.T62.lnfm_Total_c140423.nc'
 stream_year_first_lightng = 0001
 stream_year_last_lightng = 0001
/
&soil_moisture_streams
/
&lai_streams
/
&atm2lnd_inparm
 glcmec_downscale_longwave = .true.
 lapse_rate = 0.006
 lapse_rate_longwave = 0.032
 longwave_downscaling_limit = 0.5
 precip_repartition_glc_all_rain_t = 0.
 precip_repartition_glc_all_snow_t = -2.
 precip_repartition_nonglc_all_rain_t = 2.
 precip_repartition_nonglc_all_snow_t = 0.
 repartition_rain_snow = .true.
/
&lnd2atm_inparm
 melt_non_icesheet_ice_runoff = .true.
/
&clm_canopyhydrology_inparm
 interception_fraction = 1.0
 maximum_leaf_wetted_fraction = 0.05
 use_clm5_fpi = .true.
/
&cnphenology
/
&clm_soilhydrology_inparm
/
&dynamic_subgrid
 do_harvest = .false.
 do_transient_crops = .false.
 do_transient_pfts = .false.
 reset_dynbal_baselines = .false.
/
&cnvegcarbonstate
 initial_vegc = 100.d00
/
&finidat_consistency_checks
/
&dynpft_consistency_checks
/
&clm_initinterp_inparm
 init_interp_method = 'general'
/
&century_soilbgcdecompcascade
/
&soilhydrology_inparm
 baseflow_scalar = 0.001d00
/
&luna
/
&friction_velocity
 zetamaxstable = 0.5d00
/
&mineral_nitrogen_dynamics
 freelivfix_intercept = 0.0117d00
 freelivfix_slope_wet = 0.0006d00
/
&soilwater_movement_inparm
 dtmin = 60.
 expensive = 42
 flux_calculation = 1
 inexpensive = 1
 lower_boundary_condition = 2
 soilwater_movement_method = 1
 upper_boundary_condition = 1
 verysmall = 1.e-8
 xtolerlower = 1.e-2
 xtolerupper = 1.e-1
/
&rooting_profile_inparm
 rooting_profile_method_carbon = 1
 rooting_profile_method_water = 1
/
&soil_resis_inparm
 soil_resis_method = 1
/
&bgc_shared
 constrain_stress_deciduous_onset = .false.
/
&canopyfluxes_inparm
 itmax_canopy_fluxes = 40
 use_undercanopy_stability = .false.
/
&aerosol
 fresh_snw_rds_max = 204.526d00
/
&clmu_inparm
 building_temp_method = 1
 urban_hac = 'ON_WASTEHEAT'
 urban_traffic = .false.
/
&clm_soilstate_inparm
 organic_frac_squared = .false.
/
&clm_nitrogen
 carbon_resp_opt = 0
 cn_evergreen_phenology_opt = 1
 cn_partition_opt = 1
 cn_residual_opt = 1
 cnratio_floating = .true.
 downreg_opt = .false.
 lnc_opt = .true.
 mm_nuptake_opt = .true.
 nscalar_opt = .true.
 plant_ndemand_opt = 3
 reduce_dayl_factor = .false.
 substrate_term_opt = .true.
 temp_scalar_opt = .true.
 vcmax_opt = 3
/
&clm_snowhydrology_inparm
 lotmp_snowdensity_method = 'Slater2017'
 reset_snow = .false.
 reset_snow_glc = .false.
 reset_snow_glc_ela = 1.e9
 snow_dzmax_l_1 = 0.03d00
 snow_dzmax_l_2 = 0.07d00
 snow_dzmax_u_1 = 0.02d00
 snow_dzmax_u_2 = 0.05d00
 snow_dzmin_1 = 0.010d00
 snow_dzmin_2 = 0.015d00
 snow_overburden_compaction_method = 'Vionnet2012'
 upplim_destruct_metamorph = 175.d00
 wind_dependent_snow_density = .true.
/
&cnprecision_inparm
 cnegcrit = -6.d+1
 ncrit = 1.d-9
 nnegcrit = -6.d+0
/
&clm_glacier_behavior
 glacier_region_behavior = 'single_at_atm_topo','virtual','virtual','multiple'
 glacier_region_ice_runoff_behavior = 'melted','melted','remains_ice','remains_ice'
 glacier_region_melt_behavior = 'remains_in_place','replaced_by_ice','replaced_by_ice','replaced_by_ice'
/
&crop
/
&irrigation_inparm
 irrig_depth = 0.6
 irrig_length = 14400
 irrig_method_default = 'drip'
 irrig_min_lai = 0.0
 irrig_start_time = 21600
 irrig_target_smp = -3400.
 irrig_threshold_fraction = 1.0
 limit_irrigation_if_rof_enabled = .false.
 use_groundwater_irrigation = .false.
/
&surfacealbedo_inparm
 snowveg_affects_radiation = .true.
/
&water_tracers_inparm
 enable_water_isotopes = .false.
 enable_water_tracer_consistency_checks = .false.
/
&clm_humanindex_inparm
 calc_human_stress_indices = 'FAST'
/
&cnmresp_inparm
 br_root = 0.83d-06
/
&photosyns_inparm
 leafresp_method = 2
 light_inhibit = .true.
 modifyphoto_and_lmr_forcrop = .true.
 rootstem_acc = .false.
 stomatalcond_method = 'Medlyn2011'
/
&cnfire_inparm
 fire_method = 'li2016crufrc'
/
&cn_general
/
&nitrif_inparm
/
&lifire_inparm
 boreal_peatfire_c = 0.09d-4
 bt_max = 0.98d00
 bt_min = 0.85d00
 cli_scale = 0.033d00
 cmb_cmplt_fact_cwd = 0.28d00
 cmb_cmplt_fact_litter = 0.5d00
 cropfire_a1 = 1.6d-4
 lfuel = 105.d00
 non_boreal_peatfire_c = 0.17d-3
 occur_hi_gdp_tree = 0.33d00
 pot_hmn_ign_counts_alpha = 0.010d00
 rh_hgh = 80.0d00
 rh_low = 30.0d00
 ufuel = 1050.d00
/
&ch4finundated
/
&clm_canopy_inparm
 leaf_mr_vcm = 0.015d00
/
&scf_swenson_lawrence_2012_inparm
 int_snow_max = 2000.
 n_melt_glcmec = 10.0d00
/
!#--------------------------------------------------------------------------------------------------------------------------
!# lnd_in:: Comment:
!# This namelist was created using the following command-line:
!#     /home/u8/sdwilson/CTSM_SONG/bld/CLM build-namelist -cimeroot /home/u8/sdwilson/CTSM_SONG/cime/scripts/Tools/../.. -infile /home/u8/sdwilson/CTSM_SONG/case_run/Omics_soilbgc/1x1pt_LENO/test1_spinup/Buildconf/clmconf/namelist -csmdata /xdisk/chopinsong/chopinsong/CTSM_inputdata -inputdata /home/u8/sdwilson/CTSM_SONG/case_run/Omics_soilbgc/1x1pt_LENO/test1_spinup/Buildconf/ctsm.input_data_list -ignore_ic_year -namelist &clm_inparm  start_ymd=20180101 /  -use_case 2000_control -res 1x1pt_LENO -clm_usr_name 1x1pt_LENO -clm_start_type default -envxml_dir /home/u8/sdwilson/CTSM_SONG/case_run/Omics_soilbgc/1x1pt_LENO/test1_spinup -configuration clm -structure standard -lnd_frac /xdisk/chopinsong/sdwilson/CTSM_sabrina/PTCLM/mydatafile/LENO/1x1pt_LENO/domain.lnd.1x1pt_LENO_navy.240920.nc -glc_nec 10 -co2_ppmv 367.0 -co2_type constant -config /home/u8/sdwilson/CTSM_SONG/case_run/Omics_soilbgc/1x1pt_LENO/test1_spinup/Buildconf/clmconf/config_cache.xml -bgc bgc -mask navy -no-crop -clm_accelerated_spinup on -lnd_tuning_mode clm5_0_CRUv7
!# For help on options use: /home/u8/sdwilson/CTSM_SONG/bld/CLM build-namelist -help
!#--------------------------------------------------------------------------------------------------------------------------
