&clm_inparm
 hist_mfilt = 365
 hist_nhtfrq = -24
 finidat = '/home/xyk/LDRD2013/clm4_ornl_cnp/run/testpara_P4_MAN-05_I1850CN_exit_spinup/run/testpara_P4_MAN-05_I1850CN_exit_spinup.clm2.r.0602-01-01-00000.nc'
 fsurdat = '/home/xyk/DownloadedCCSMData/ccsm_inputdata/lnd/clm2/surfdata/surfdata_1x1pt_testpara_P4_MAN-05_I1850CN_simyr1850_c130404.nc'
 fpftcon = '/home/xyk/DownloadedCCSMData/ccsm_inputdata/lnd/clm2/pftdata/pft-physiology.c110425.testpara_P4_MAN-05_I1850CN.nc'
 fsoilordercon = '/home/xyk/DownloadedCCSMData/ccsm_inputdata/lnd/clm2/pftdata/CNP_parameters_c121029testpara_P4_MAN-05_I1850CN.nc'
 stream_fldfilename_ndep = '/home/xyk/DownloadedCCSMData/ccsm_inputdata/lnd/clm2/ndepdata/fndep_clm_hist_simyr1849-2006_1.9x2.5_c100428.nc'
/
