!----------------------------------------------------------------------------------
! Users should add all user specific namelist changes below in the form of 
! namelist_var = new_namelist_value 
!
! EXCEPTIONS: 
! Set use_cndv           by the compset you use and the CLM_BLDNML_OPTS -dynamic_vegetation setting
! Set use_vichydro       by the compset you use and the CLM_BLDNML_OPTS -vichydro           setting
! Set use_cn             by the compset you use and CLM_BLDNML_OPTS -bgc  setting
! Set use_crop           by the compset you use and CLM_BLDNML_OPTS -crop setting
! Set spinup_state       by the CLM_BLDNML_OPTS -bgc_spinup      setting
! Set co2_ppmv           with CCSM_CO2_PPMV                      option
! Set fatmlndfrc         with LND_DOMAIN_PATH/LND_DOMAIN_FILE    options
! Set finidat            with RUN_REFCASE/RUN_REFDATE/RUN_REFTOD options for hybrid or branch cases
!                        (includes $inst_string for multi-ensemble cases)
!                        or with CLM_FORCE_COLDSTART to do a cold start
!                        or set it with an explicit filename here.
! Set maxpatch_glcmec    with GLC_NEC                            option
! Set glc_do_dynglacier  with GLC_TWO_WAY_COUPLING               env variable
!----------------------------------------------------------------------------------

fsurdat = '/xdisk/chopinsong/sdwilson/CTSM_sabrina/PTCLM/mydatafile/SRER/1x1pt_SRER/surfdata_1x1pt_SRER_hist_78pfts_CMIP6_simyr2000_c240904.nc'
hist_nhtfrq = 0
hist_mfilt  = 1200
use_fertilizer = .false.
use_init_interp = .true.
use_crop = .false.
use_vertsoilc = .false.
use_hydrstress = .true.
use_century_decomp = .false.
use_cn         = .true.
use_luna       = .false.
use_lch4       = .false.
do_harvest = .false.
do_transient_crops = .false.
do_transient_pfts = .false.
hist_fincl1 = 'GPP:A','TWS:A','TOTECOSYSC:A','TOTVEGC:A','TLAI:A','TOTSOMC:A'
hist_dov2xy = .true.
hist_type1d_pertape = ' '
constrain_stress_deciduous_onset=.false.
soil_layerstruct_predefined = '10SL_3.5m'
Watsat_profile_file ='/home/u8/sdwilson/CTSM_SONG/case_run/Omics_soilbgc/1x1pt_SRER/hydro_files/watsat_profile_S1.txt'
Sucsat_profile_file ='/home/u8/sdwilson/CTSM_SONG/case_run/Omics_soilbgc/1x1pt_SRER/hydro_files/sucsat_profile_S1.txt'
B_profile_file ='/home/u8/sdwilson/CTSM_SONG/case_run/Omics_soilbgc/1x1pt_SRER/hydro_files/bsw_profile_S1.txt'
fsurdat = '/xdisk/chopinsong/sdwilson/CTSM_sabrina/PTCLM/mydatafile/SRER/1x1pt_SRER/surfdata_1x1pt_SRER_hist_78pfts_CMIP6_simyr2000_c240904.nc'
hist_nhtfrq = 0
hist_mfilt  = 1200
use_fertilizer = .false.
use_init_interp = .true.
use_crop = .false.
use_vertsoilc = .false.
use_hydrstress = .true.
use_century_decomp = .false.
use_cn         = .true.
use_luna       = .false.
use_lch4       = .false.
do_harvest = .false.
do_transient_crops = .false.
do_transient_pfts = .false.
hist_fincl1 = 'GPP:A','TWS:A','TOTECOSYSC:A','TOTVEGC:A','TLAI:A','TOTSOMC:A'
hist_dov2xy = .true.
hist_type1d_pertape = ' '
constrain_stress_deciduous_onset=.false.
soil_layerstruct_predefined = '10SL_3.5m'
Watsat_profile_file ='/home/u8/sdwilson/CTSM_SONG/case_run/Omics_soilbgc/1x1pt_SRER/hydro_files/watsat_profile_S1.txt'
Sucsat_profile_file ='/home/u8/sdwilson/CTSM_SONG/case_run/Omics_soilbgc/1x1pt_SRER/hydro_files/sucsat_profile_S1.txt'
B_profile_file ='/home/u8/sdwilson/CTSM_SONG/case_run/Omics_soilbgc/1x1pt_SRER/hydro_files/bsw_profile_S1.txt'
fsurdat = '/xdisk/chopinsong/sdwilson/CTSM_sabrina/PTCLM/mydatafile/SRER/1x1pt_SRER/surfdata_1x1pt_SRER_hist_78pfts_CMIP6_simyr2000_c240904.nc'
hist_nhtfrq = 0
hist_mfilt  = 1200
use_fertilizer = .false.
use_init_interp = .true.
use_crop = .false.
use_vertsoilc = .false.
use_hydrstress = .true.
use_century_decomp = .false.
use_cn         = .true.
use_luna       = .false.
use_lch4       = .false.
do_harvest = .false.
do_transient_crops = .false.
do_transient_pfts = .false.
hist_fincl1 = 'GPP:A','TWS:A','TOTECOSYSC:A','TOTVEGC:A','TLAI:A','TOTSOMC:A'
hist_dov2xy = .true.
hist_type1d_pertape = ' '
constrain_stress_deciduous_onset=.false.
soil_layerstruct_predefined = '10SL_3.5m'
Watsat_profile_file ='/home/u8/sdwilson/CTSM_SONG/case_run/Omics_soilbgc/1x1pt_SRER/hydro_files/watsat_profile_S1.txt'
Sucsat_profile_file ='/home/u8/sdwilson/CTSM_SONG/case_run/Omics_soilbgc/1x1pt_SRER/hydro_files/sucsat_profile_S1.txt'
B_profile_file ='/home/u8/sdwilson/CTSM_SONG/case_run/Omics_soilbgc/1x1pt_SRER/hydro_files/bsw_profile_S1.txt'
