! user_nl_clm namelist options written by PTCLMmkdata:
! /var/spool/slurm/d/job9831931/slurm_script --ctsm_root /home/u8/sdwilson/CTSM_SONG -s site28 -d /xdisk/chopinsong/chopinsong/CTSM_inputdata --map_gdate 240517 --crop --mydatadir=/xdisk/chopinsong/sdwilson/CTSM_sabrina/PTCLM/mydatafile/site28 
 fsurdat = '/xdisk/chopinsong/sdwilson/CTSM_sabrina/PTCLM/mydatafile/site28/1x1pt_site28/surfdata_1x1pt_site28_hist_78pfts_CMIP6_simyr2000_c240517.nc'
 hist_nhtfrq = 0
 hist_mfilt  = 1200
hist_empty_htapes = .true.
hist_fincl1 = 'NPP:A','TSOI:A'
hist_dov2xy = .true.
hist_type1d_pertape = ' '
hist_nhtfrq = -24
hist_mfilt  = 100000
use_init_interp = .true.
use_fertilizer  = .false.
use_vertsoilc = .false.
use_century_decomp = .false.
use_crop        = .true.
use_hydrstress  = .true.
use_cn          = .true.
use_luna        = .false.
do_harvest         = .false.
do_transient_crops = .false.
do_transient_pfts  = .false.
constrain_stress_deciduous_onset=.false.
soil_layerstruct_predefined = '10SL_3.5m'
finidat='/home/u8/sdwilson/CTSM_SONG/case_run/EFC/1x1pt_site28/1x1_control_hist/'
fsurdat = '/xdisk/chopinsong/sdwilson/CTSM_sabrina/PTCLM/mydatafile/site28/1x1pt_site28/surfdata_1x1pt_site28_hist_78pfts_CMIP6_simyr2000_c240517.nc'
hist_empty_htapes = .true.
hist_fincl1 = 'NPP:A','TSOI:A'
hist_dov2xy = .true.
hist_type1d_pertape = ' '
hist_nhtfrq = -24
hist_mfilt  = 100000
use_init_interp = .true.
use_fertilizer  = .false.
use_vertsoilc = .false.
use_century_decomp = .false.
use_crop        = .true.
use_hydrstress  = .true.
use_cn          = .true.
use_luna        = .false.
do_harvest         = .false.
do_transient_crops = .false.
do_transient_pfts  = .false.
constrain_stress_deciduous_onset=.false.
soil_layerstruct_predefined = '10SL_3.5m'
finidat='/home/u8/sdwilson/CTSM_SONG/case_run/EFC/1x1pt_site28/1x1_control_hist/1x1_control_final.clm2.r.2012-01-01-00000.nc'
fsurdat = '/xdisk/chopinsong/sdwilson/CTSM_sabrina/PTCLM/mydatafile/site28/1x1pt_site28/surfdata_1x1pt_site28_hist_78pfts_CMIP6_simyr2000_c240517.nc'
hist_empty_htapes = .true.
hist_fincl1 = 'NPP:A','TSOI:A'
hist_dov2xy = .true.
hist_type1d_pertape = ' '
hist_nhtfrq = -24
hist_mfilt  = 100000
use_init_interp = .true.
use_fertilizer  = .false.
use_vertsoilc = .false.
use_century_decomp = .false.
use_crop        = .true.
use_hydrstress  = .true.
use_cn          = .true.
use_luna        = .false.
do_harvest         = .false.
do_transient_crops = .false.
do_transient_pfts  = .false.
constrain_stress_deciduous_onset=.false.
soil_layerstruct_predefined = '10SL_3.5m'
finidat='/home/u8/sdwilson/CTSM_SONG/case_run/EFC/1x1pt_site28/1x1_control_hist/1x1_control_final.clm2.r.2012-01-01-00000.nc'
fsurdat = '/xdisk/chopinsong/sdwilson/CTSM_sabrina/PTCLM/mydatafile/site28/1x1pt_site28/surfdata_1x1pt_site28_hist_78pfts_CMIP6_simyr2000_c240517.nc'
hist_empty_htapes = .true.
hist_fincl1 = 'NPP:A','TSOI:A','H2OSOI:A'
hist_dov2xy = .true.
hist_type1d_pertape = ' '
hist_nhtfrq = -24
hist_mfilt  = 100000
use_init_interp = .true.
use_fertilizer  = .false.
use_vertsoilc = .false.
use_century_decomp = .false.
use_crop        = .true.
use_hydrstress  = .true.
use_cn          = .true.
use_luna        = .false.
do_harvest         = .false.
do_transient_crops = .false.
do_transient_pfts  = .false.
constrain_stress_deciduous_onset=.false.
soil_layerstruct_predefined = '10SL_3.5m'
finidat='/home/u8/sdwilson/CTSM_SONG/case_run/EFC/1x1pt_site28/1x1_control_hist/1x1_control_final.clm2.r.2012-01-01-00000.nc'
fsurdat = '/xdisk/chopinsong/sdwilson/CTSM_sabrina/PTCLM/mydatafile/site28/1x1pt_site28/surfdata_1x1pt_site28_hist_78pfts_CMIP6_simyr2000_c240517.nc'
hist_empty_htapes = .true.
hist_fincl1 = 'NPP:A','TSOI:A','H2OSOI:A'
hist_dov2xy = .true.
hist_type1d_pertape = ' '
hist_nhtfrq = -24
hist_mfilt  = 100000
use_init_interp = .true.
use_fertilizer  = .false.
use_vertsoilc = .false.
use_century_decomp = .false.
use_crop        = .true.
use_hydrstress  = .true.
use_cn          = .true.
use_luna        = .false.
do_harvest         = .false.
do_transient_crops = .false.
do_transient_pfts  = .false.
constrain_stress_deciduous_onset=.false.
soil_layerstruct_predefined = '10SL_3.5m'
finidat='/home/u8/sdwilson/CTSM_SONG/case_run/EFC/1x1pt_site28/1x1_control_hist/1x1_control_final.clm2.r.2012-01-01-00000.nc'
fsurdat = '/xdisk/chopinsong/sdwilson/CTSM_sabrina/PTCLM/mydatafile/site28/1x1pt_site28/surfdata_1x1pt_site28_hist_78pfts_CMIP6_simyr2000_c240517.nc'
