&clm_inparm
 fsurdat = '/home/xyk/DownloadedCCSMData/ccsm_inputdata/lnd/clm2/surfdata/surfdata_1x1pt_test3_CR-Lse_I1850CN_ad_spinup_simyr1850_c130404.nc'
 fpftcon = '/home/xyk/DownloadedCCSMData/ccsm_inputdata/lnd/clm2/pftdata/pft-physiology.c110425.test3_CR-Lse_I1850CN_ad_spinup.nc'
 fsoilordercon = '/home/xyk/DownloadedCCSMData/ccsm_inputdata/lnd/clm2/pftdata/CNP_parameters_c121029test3_CR-Lse_I1850CN_ad_spinup.nc'
 stream_fldfilename_ndep = '/home/xyk/DownloadedCCSMData/ccsm_inputdata/lnd/clm2/ndepdata/fndep_clm_hist_simyr1849-2006_1.9x2.5_c100428.nc'
/
